kpg193_v2_0_2038/network/m/KPG193_ver2_0_2038.m
function mpc = KPG193_ver2_0_2038
% Generated from KPG193_ver1_6 ACOPF hourly result.
% Bus voltage angle Va is in degrees, matching MATPOWER case format.
mpc.version = '2';

%-----  Power Flow Data  -----%%
% system MVA base
mpc.baseMVA = 100;

% bus data
%	bus_i	type	Pd	Qd	Gs	Bs	area	Vm	Va	baseKV	zone	Vmax	Vmin
mpc.bus = [
	1	1	76.038079601	7.6038079601	0	0	1	1.0423193334	-16.9740983751	154	1	1.1	0.9	;
	2	1	91.9018161146	9.19018161146	0	0	1	1.04508228734	-18.6240519977	345	1	1.05	0.95	;
	3	1	421.497447767	42.1497447767	0	0	1	1.04501173245	-18.546803127	345	1	1.05	0.95	;
	4	1	97.7607079987	9.77607079987	0	0	1	1.04663323733	-19.0489145505	345	1	1.05	0.95	;
	5	1	87.3305458427	11.0393112383	0	0	1	1.05005871042	-10.1964362152	154	1	1.1	0.9	;
	6	1	93.926994864	9.3926994864	0	0	1	1.04558231278	-19.971775372	154	1	1.1	0.9	;
	7	1	633.755840418	63.3772994702	0	0	1	1.04855355906	-19.362840736	345	1	1.05	0.95	;
	8	2	1446.69262718	144.669262718	0	0	1	1.04649286736	-19.6152957121	345	1	1.05	0.95	;
	9	1	366.258127435	36.6258127435	0	0	1	1.04772936855	-19.4103336274	154	1	1.1	0.9	;
	10	2	804.654654069	80.4654654069	0	0	1	1.04789909626	-19.5182601382	154	1	1.1	0.9	;
	11	1	666.480482696	66.6480482696	0	0	1	1.0455007452	-19.9920968857	345	1	1.05	0.95	;
	12	1	365.70583572	36.570583572	0	0	1	1.04763489983	-19.4264321493	154	1	1.1	0.9	;
	13	1	394.166783162	39.4166783162	0	0	1	1.04791096867	-19.4037688313	154	1	1.1	0.9	;
	14	1	422.7147321	42.27147321	0	0	1	1.04781734525	-19.4529477477	345	1	1.05	0.95	;
	15	1	125.047258016	12.5047258016	0	0	1	1.04853551243	-19.3147410146	154	1	1.1	0.9	;
	16	2	538.708514618	53.8708514618	0	0	1	1.04891022867	-19.2699530333	345	1	1.05	0.95	;
	17	1	580.893763863	58.0893763863	0	0	1	1.04855397812	-19.3648679919	345	1	1.05	0.95	;
	18	1	606.477196171	60.6477196171	0	0	1	1.04836020486	-19.4035311495	345	1	1.05	0.95	;
	19	2	570.66222485	57.0958160311	0	0	1	1.0478420348	-19.4508739886	345	1	1.05	0.95	;
	20	2	290.46217984	29.4853634551	0	0	1	1.04568318734	-18.8213396323	154	1	1.1	0.9	;
	21	2	866.044133131	88.999886544	0	0	1	1.04593523922	-19.8617961698	345	1	1.05	0.95	;
	22	1	718.695293834	71.8695293834	0	0	1	1.04868011495	-19.2447041366	345	1	1.05	0.95	;
	23	1	420.574315245	42.0574315245	0	0	1	1.04691427896	-19.5164199047	345	1	1.05	0.95	;
	24	1	688.068066439	68.8068066439	0	0	1	1.04717815353	-19.5583632802	154	1	1.1	0.9	;
	25	1	556.421953676	55.6421953676	0	0	1	1.04651163673	-19.7107728745	154	1	1.1	0.9	;
	26	1	656.738115768	65.6738115768	0	0	1	1.0474788445	-19.5422940082	345	1	1.05	0.95	;
	27	2	-367.974232358	3.74089244195	0	0	1	1.04921982288	-19.1252847333	345	1	1.05	0.95	;
	28	1	148.890005648	14.8890005648	0	0	1	1.04136598957	-14.6940073609	765	1	1.05	0.95	;
	29	1	724.079233789	72.408300264	0	0	1	1.0468697124	-19.2929406167	345	1	1.05	0.95	;
	30	1	562.598814338	56.2598814338	0	0	1	1.04681247812	-19.2961132194	154	1	1.1	0.9	;
	31	1	457.542320347	45.7554779806	0	0	1	1.04585227984	-19.5986731652	154	1	1.1	0.9	;
	32	1	188.651162417	18.8651162417	0	0	1	1.04654385568	-19.5566477652	345	1	1.05	0.95	;
	33	1	544.009713001	54.4009713001	0	0	1	1.04623043382	-19.5737516716	154	1	1.1	0.9	;
	34	2	1216.61221959	121.662089564	0	0	1	1.04800724618	-19.4782433323	345	1	1.05	0.95	;
	35	1	741.175809203	74.1175809203	0	0	1	1.04388032251	-20.0167264948	154	1	1.1	0.9	;
	36	2	855.030975461	85.5030975461	0	0	1	1.04673789838	-19.262324063	345	1	1.05	0.95	;
	37	1	1048.25123054	104.825123054	0	0	1	1.0459799735	-19.7008490939	345	1	1.05	0.95	;
	38	1	424.553712917	42.4553712917	0	0	1	1.04361627558	-18.5676141307	345	1	1.05	0.95	;
	39	1	819.083643432	81.9083643432	0	0	1	1.03954303807	-20.7224561988	154	1	1.1	0.9	;
	40	2	1208.14727495	124.159130706	0	0	1	1.04371787113	-19.5261200951	345	1	1.05	0.95	;
	41	1	224.340518233	22.4340518233	0	0	1	1.03433933918	-14.3424021685	154	1	1.1	0.9	;
	42	2	1369.15276917	136.915276917	0	0	1	1.03591647554	-17.6689864291	154	1	1.1	0.9	;
	43	2	713.571547512	71.3616223447	0	0	1	1.03949902755	-20.3370234903	154	1	1.1	0.9	;
	44	1	220.149974401	22.0170748521	0	0	1	1.04239555209	-19.8580224403	345	1	1.05	0.95	;
	45	1	403.12179883	40.312179883	0	0	1	1.03950591343	-19.1701116997	345	1	1.05	0.95	;
	46	1	1268.16351178	126.816351178	0	0	1	1.04066451952	-18.7397097434	345	1	1.05	0.95	;
	47	1	3212.05384084	321.206305766	0	0	1	1.03707387085	-20.875507537	345	1	1.05	0.95	;
	48	2	224.05569678	22.405569678	0	0	1	1.03960594244	-19.2137880244	154	1	1.1	0.9	;
	49	1	458.402205476	45.8402205476	0	0	1	1.03462486561	-19.8552132568	154	1	1.1	0.9	;
	50	1	545.120598515	54.5120598515	0	0	1	1.03769012287	-18.5876123872	765	1	1.05	0.95	;
	51	1	2183.89026639	218.389026639	0	0	1	1.03435090213	-19.5254471479	345	1	1.05	0.95	;
	52	2	502.577276323	50.2577276323	0	0	2	1.03111084518	-15.3102215615	154	1	1.1	0.9	;
	53	2	1043.04734616	104.304734616	0	0	2	1.03923332731	-17.0852031586	765	1	1.05	0.95	;
	54	1	448.154280468	44.8154280468	0	0	2	1.03242703612	-18.1540974855	345	1	1.05	0.95	;
	55	1	1304.49372674	130.449911765	0	0	2	1.03254529274	-18.7927796948	345	1	1.05	0.95	;
	56	1	181.241303135	18.1241303135	0	0	2	1.02839930479	-17.4650666771	154	1	1.1	0.9	;
	57	1	2054.004388	205.400849157	0	0	2	1.033132915	-19.1411132746	345	1	1.05	0.95	;
	58	1	1537.56254088	153.757407862	0	0	2	1.03775810396	-16.9708638996	345	1	1.05	0.95	;
	59	2	139.553534597	13.9616448285	0	0	2	1.03887926645	-16.326023795	345	1	1.05	0.95	;
	60	1	203.324377993	20.3324377993	0	0	2	1.03580490415	-17.8441034984	345	1	1.05	0.95	;
	61	1	973.403715131	97.3404490332	0	0	2	1.03078181927	-18.2941386425	154	1	1.1	0.9	;
	62	1	1145.69574021	114.569937155	0	0	2	1.03351935935	-18.30147352	765	1	1.05	0.95	;
	63	1	158.730259489	15.8730259489	0	0	2	1.03824148842	-17.4155760582	765	1	1.05	0.95	;
	64	1	578.364009176	57.8364009176	0	0	2	1.02537522613	-17.2895557655	345	1	1.05	0.95	;
	65	1	85.7214452439	13.754437221	0	0	3	1.0431008839	-3.48382031871	154	1	1.1	0.9	;
	66	1	30.7159632302	3.97329201595	0	0	3	1.04177881289	-11.7024261247	154	1	1.1	0.9	;
	67	1	27.0751164393	3.14803003864	0	0	3	1.04002062206	-8.85178087477	154	1	1.1	0.9	;
	68	1	-24.2567988546	4.97022439525	0	0	3	1.04696334549	-1.7320027753	345	1	1.05	0.95	;
	69	1	-4.32828778704	5.17176012726	0	0	3	1.04051529315	-6.75537001785	154	1	1.1	0.9	;
	70	1	284.114119113	28.524713073	0	0	3	1.04064573226	-11.7105477643	154	1	1.1	0.9	;
	71	2	321.694291672	32.1694291672	0	0	3	1.04964015611	0.13930476998	345	1	1.05	0.95	;
	72	1	112.313201837	11.2313201837	0	0	3	1.03803942621	-10.8197301595	154	1	1.1	0.9	;
	73	2	351.39044784	36.4733841587	0	0	3	1.04706960848	2.40131807004	345	1	1.05	0.95	;
	74	1	-169.172593611	10.3724934713	0	0	3	1.03757888126	-10.9125319246	154	1	1.1	0.9	;
	75	2	185.943297888	21.5261507018	0	0	3	1.04991065121	4.27580711237	345	1	1.05	0.95	;
	76	1	7.79922138344	9.58268685429	0	0	3	1.03096972281	-2.57799513955	154	1	1.1	0.9	;
	77	1	395.183710335	39.5183710335	0	0	3	1.03400435732	-12.8349731469	154	1	1.1	0.9	;
	78	1	-1124.23352767	9.56448447174	0	0	3	1.04555856672	-8.00029986484	154	1	1.1	0.9	;
	79	1	174.344777231	17.4344777231	0	0	3	1.02511261468	-5.73055205885	154	1	1.1	0.9	;
	80	1	-4606.55238421	4.62618790668	0	0	3	1.03535215649	4.42611431435	765	1	1.05	0.95	;
	81	1	252.498439189	25.2511897198	0	0	3	1.02851998103	-8.12613322121	345	1	1.05	0.95	;
	82	2	109.399130199	10.9793759652	0	0	3	1.04413016374	7.5719768245	765	1	1.05	0.95	;
	83	1	288.722863536	28.873234681	0	0	3	1.01581957314	-7.98622747397	154	1	1.1	0.9	;
	84	1	402.872718695	42.1175550417	0	0	3	1.03005998424	-14.3110699996	345	1	1.05	0.95	;
	85	1	271.935820036	27.1935820036	0	0	3	1.02028446859	-2.97116802902	154	1	1.1	0.9	;
	86	1	266.295308864	26.6298483231	0	0	3	1.02336454921	-3.92116346988	345	1	1.05	0.95	;
	87	2	23.2722022525	6.09213446412	0	0	3	1.02136167508	-3.47596245428	345	1	1.05	0.95	;
	88	1	-797.188816175	1.7130127994	0	0	3	1.03138571471	6.06262691671	154	1	1.1	0.9	;
	89	1	92.3952499791	9.24046733016	0	0	3	1.01548362254	-7.3807526521	154	1	1.1	0.9	;
	90	1	176.182669783	18.5059629363	0	0	3	1.01942522065	-4.62688993588	154	1	1.1	0.9	;
	91	1	61.9491572315	6.19491572315	0	0	3	1.01919317866	-15.3654420194	154	1	1.1	0.9	;
	92	1	-241.744313501	3.14409328234	0	0	3	1.02256418582	-2.79743815909	345	1	1.05	0.95	;
	93	1	122.564556818	12.2581751847	0	0	3	1.01249038519	-10.7846424532	154	1	1.1	0.9	;
	94	1	-932.765957222	4.5311328388	0	0	3	1.02665110681	6.28034103794	154	1	1.1	0.9	;
	95	1	69.6286147518	6.96286147518	0	0	3	1.01741997264	-3.75198564374	345	1	1.05	0.95	;
	96	2	180.140893812	18.0140893812	0	0	4	1.0267336574	-15.7133295651	154	1	1.1	0.9	;
	97	1	56.0518799274	5.60518799274	0	0	4	1.02808663075	-16.2080993797	345	1	1.05	0.95	;
	98	1	284.509699086	28.8981320047	0	0	4	1.01742417203	-17.6140569396	154	1	1.1	0.9	;
	99	1	927.178132101	92.7178132101	0	0	4	1.01665823785	-18.0935705696	154	1	1.1	0.9	;
	100	2	217.282102434	21.7282102434	0	0	4	1.0305463358	-15.2122771453	345	1	1.05	0.95	;
	101	1	338.866733658	33.8866733658	0	0	4	1.01854373889	-17.372563968	154	1	1.1	0.9	;
	102	1	99.761169484	9.97611694841	0	0	4	1.01884798945	-15.5898485136	345	1	1.05	0.95	;
	103	1	104.583327646	10.4583327646	0	0	4	1.02580763821	-15.920506022	154	1	1.1	0.9	;
	104	1	220.935019422	22.0935019422	0	0	4	1.02287684885	-16.3449855682	345	1	1.05	0.95	;
	105	1	148.107892484	14.8107892484	0	0	4	1.01230598214	-14.50647595	154	1	1.1	0.9	;
	106	2	175.282969278	17.5282969278	0	0	4	1.01927502437	-14.8176979837	154	1	1.1	0.9	;
	107	1	-4.3768821379	3.32817960805	0	0	4	1.01159716056	-13.8393845458	345	1	1.05	0.95	;
	108	1	909.769484738	90.9769484738	0	0	4	1.01945017045	-15.7051056215	345	1	1.05	0.95	;
	109	1	476.417162416	47.6417162416	0	0	4	1.01625684809	-15.7876032097	345	1	1.05	0.95	;
	110	1	278.804191176	27.8804191176	0	0	4	1.00896402855	-16.1820129584	154	1	1.1	0.9	;
	111	1	176.556072068	17.6556072068	0	0	4	1.01052839159	-14.7453949331	345	1	1.05	0.95	;
	112	1	32.6407022741	3.26407022741	0	0	4	1.00749572945	-14.7968950982	154	1	1.1	0.9	;
	113	1	693.826943433	69.3826943433	0	0	4	1.00544253009	-16.0975000763	154	1	1.1	0.9	;
	114	1	76.1353724366	7.67473504967	0	0	4	1.00953302842	-15.0571586045	154	1	1.1	0.9	;
	115	1	33.4665207991	3.34665207991	0	0	4	1.00623006753	-13.7315240004	154	1	1.1	0.9	;
	116	1	47.2436946293	4.72436946293	0	0	4	1.00402945454	-14.0198131094	154	1	1.1	0.9	;
	117	1	266.826766773	28.5264072696	0	0	4	1.01001110601	-14.8175767229	154	1	1.1	0.9	;
	118	1	103.602985298	10.3602985298	0	0	4	1.00274174571	-12.0933079232	154	1	1.1	0.9	;
	119	1	104.372003223	10.4372003223	0	0	4	1.00161128904	-12.7548238789	345	1	1.05	0.95	;
	120	1	42.7949963215	4.27949963215	0	0	4	1.00314518706	-13.3557541366	154	1	1.1	0.9	;
	121	1	99.5916679811	9.95916679811	0	0	4	1.00516154462	-14.131068152	154	1	1.1	0.9	;
	122	1	82.4717706428	8.24717706428	0	0	4	1.00103404138	-14.1848581027	154	1	1.1	0.9	;
	123	1	67.0767618489	6.70767618489	0	0	4	0.998937060494	-13.4372205395	154	1	1.1	0.9	;
	124	2	130.355413245	13.0355413245	0	0	4	0.994718936505	-8.37553704502	345	1	1.05	0.95	;
	125	1	27.7626438096	2.77626438096	0	0	4	0.998449918713	-13.6404598269	154	1	1.1	0.9	;
	126	1	462.50960911	46.250960911	0	0	4	0.998062819866	-13.3515083546	345	1	1.05	0.95	;
	127	1	364.454912991	36.4454912991	0	0	4	0.995889713532	-14.2880588821	154	1	1.1	0.9	;
	128	1	550.655465073	55.0655465073	0	0	4	0.994696049661	-15.3572803237	154	1	1.1	0.9	;
	129	1	65.1762334081	6.51762334081	0	0	4	1.00421258148	-15.1330385494	154	1	1.1	0.9	;
	130	1	15.9076288684	8.2449836117	0	0	4	0.997405315979	-13.6567688621	345	1	1.05	0.95	;
	131	1	211.290948634	21.1290948634	0	0	4	0.996621404713	-14.7160255117	154	1	1.1	0.9	;
	132	1	113.42187753	11.342187753	0	0	4	1.00500435014	-14.905040918	154	1	1.1	0.9	;
	133	1	295.65825752	33.9477708414	0	0	4	0.98561087303	-13.4754533728	345	1	1.05	0.95	;
	134	2	773.434785253	77.3434785253	0	0	4	0.982535433844	-12.8115749037	345	1	1.05	0.95	;
	135	1	163.071789321	16.4142358179	0	0	4	1.00417499985	-14.964660338	154	1	1.1	0.9	;
	136	1	188.755842486	18.8755842486	0	0	4	0.999066040304	-14.0460022916	345	1	1.05	0.95	;
	137	2	2204.39511845	224.635594896	0	0	4	0.97474690462	-13.9860196783	345	1	1.05	0.95	;
	138	1	48.542251291	4.8542251291	0	0	4	0.993321317817	-13.9894689499	154	1	1.1	0.9	;
	139	1	51.5004658368	5.15004658368	0	0	4	1.00686820034	-14.7719989874	154	1	1.1	0.9	;
	140	1	7.75970814293	5.9554938271	0	0	4	1.0018897399	-13.9187095241	154	1	1.1	0.9	;
	141	1	61.9038968109	6.19038968109	0	0	4	1.00507898774	-13.8638570596	154	1	1.1	0.9	;
	142	1	84.1142410252	8.41142410252	0	0	4	0.98776213526	-14.1150834663	154	1	1.1	0.9	;
	143	1	120.841603259	12.0939281465	0	0	4	1.00900790166	-13.8320169699	154	1	1.1	0.9	;
	144	1	55.2344016217	5.56332414977	0	0	4	1.00815604837	-14.2824744382	154	1	1.1	0.9	;
	145	1	16.1251946522	17.2813534537	0	0	4	1.00771825802	-13.9251770273	154	1	1.1	0.9	;
	146	1	-31.5342178013	5.05439404551	0	0	5	1.01084236699	-5.75702223533	154	1	1.1	0.9	;
	147	1	68.5148646539	6.85148646539	0	0	5	1.01499028329	-14.3767293021	154	1	1.1	0.9	;
	148	1	370.947368919	37.0947368919	0	0	5	0.993490372476	-10.8535680007	154	1	1.1	0.9	;
	149	2	1467.50652781	146.750652781	0	0	5	1.00307143406	-9.13565435314	345	1	1.05	0.95	;
	150	1	627.950479505	81.6077876799	0	0	5	1.01128852174	-1.12570587714	345	1	1.05	0.95	;
	151	1	481.101240511	68.9714465393	0	0	5	1.0115857318	-0.716172314828	345	1	1.05	0.95	;
	152	1	309.109521221	30.9109521221	0	0	5	0.999844809039	-7.62304944469	345	1	1.05	0.95	;
	153	1	242.221003436	24.2221003436	0	0	5	0.998567650274	-3.99309162442	154	1	1.1	0.9	;
	154	1	165.790997428	16.5792358324	0	0	5	0.996111360606	-9.01326482655	154	1	1.1	0.9	;
	155	1	464.545047476	46.4570717923	0	0	5	0.995017513857	-8.98482431317	154	1	1.1	0.9	;
	156	2	500.494069295	50.0494069295	0	0	5	1.00025960576	-6.26454906657	154	1	1.1	0.9	;
	157	1	235.615191843	23.5615191843	0	0	5	0.995189414959	-9.24948541953	154	1	1.1	0.9	;
	158	1	-811.431582436	61.6401341389	0	0	5	1.01054299579	0.24442289173	154	1	1.1	0.9	;
	159	1	428.71243352	42.871243352	0	0	5	0.998764955452	-5.14523048299	345	1	1.05	0.95	;
	160	1	1223.53313583	122.353313583	0	0	5	0.997366623811	-10.3091662271	154	1	1.1	0.9	;
	161	1	201.752867438	20.1752867438	0	0	5	0.997395648383	-7.34412376013	345	1	1.05	0.95	;
	162	1	72.7987266377	7.27987266377	0	0	5	0.991380694442	-7.87565505719	154	1	1.1	0.9	;
	163	1	76.5699100049	7.65699100049	0	0	5	0.997664476701	-4.02325468823	345	1	1.05	0.95	;
	164	1	59.9070934519	6.43942839345	0	0	5	0.993439821528	-7.36850463786	154	1	1.1	0.9	;
	165	1	1877.60856078	187.761594631	0	0	5	1.00481374128	-1.58161382896	345	1	1.05	0.95	;
	166	2	586.937191953	60.3092486052	0	0	5	1.01685026398	1.41615415555	345	1	1.05	0.95	;
	167	2	2505.91398057	250.592339737	0	0	5	1.01435258839	1.10948123962	345	1	1.05	0.95	;
	168	1	159.584150933	15.9584150933	0	0	5	0.997619022825	-2.75723737343	765	1	1.05	0.95	;
	169	1	44.9735530607	4.49735530607	0	0	5	0.991103977992	-7.62632011091	154	1	1.1	0.9	;
	170	1	169.691412754	19.7622383444	0	0	5	0.993155072275	-2.95332129551	154	1	1.1	0.9	;
	171	1	22.473183904	5.53218203394	0	0	5	0.991787137968	-6.16606810056	345	1	1.05	0.95	;
	172	2	401.113327693	58.3445289384	0	0	5	0.991848075471	-0.340177988567	154	1	1.1	0.9	;
	173	1	24.8207492687	6.05437106794	0	0	5	0.991110341452	-6.09565093986	345	1	1.05	0.95	;
	174	2	439.025343653	43.9025343653	0	0	5	0.989234464665	-4.85973618634	345	1	1.05	0.95	;
	175	2	197.237492882	19.9053774939	0	0	5	0.995108913672	2.75943372028	765	1	1.05	0.95	;
	176	1	576.81541529	57.681541529	0	0	5	0.989904783865	-3.37758167668	345	1	1.05	0.95	;
	177	1	737.508078816	73.7518063345	0	0	5	0.989432248747	-2.13743698973	345	1	1.05	0.95	;
	178	1	833.654595854	83.365905394	0	0	5	0.986626539124	-1.8489342866	154	1	1.1	0.9	;
	179	1	444.969354592	44.4969354592	0	0	5	0.991333897174	0.787688018678	345	1	1.05	0.95	;
	180	1	416.177916049	41.6177916049	0	0	5	0.985572981888	-6.22414242223	154	1	1.1	0.9	;
	181	1	377.292094179	37.7292094179	0	0	5	0.990807526632	0.0194398236867	345	1	1.05	0.95	;
	182	1	681.118106265	68.1137820294	0	0	5	0.989797968922	-0.511166262256	345	1	1.05	0.95	;
	183	1	308.120491531	30.812680536	0	0	5	0.990201706741	-2.04502361257	345	1	1.05	0.95	;
	184	1	608.787037829	60.8802337745	0	0	5	0.990837607415	0.68165637536	345	1	1.05	0.95	;
	185	1	347.921191299	34.7921191299	0	0	5	0.989348781137	-0.0495437295066	154	1	1.1	0.9	;
	186	2	520.956644855	52.0997530919	0	0	5	0.989327841878	0.621866626591	345	1	1.05	0.95	;
	187	1	72.0056462108	7.20056462108	0	0	5	0.989296335213	0.611794715614	345	1	1.05	0.95	;
	188	1	65.7018674919	6.57628182811	0	0	5	0.981711155619	-10.2593047636	154	1	1.1	0.9	;
	189	1	115.939995375	12.00435671	0	0	5	0.991075077405	-3.23228943971	154	1	1.1	0.9	;
	190	3	208.682124853	21.540399959	0	0	5	1	0	345	1	1.05	0.95	;
	191	1	299.778111854	29.9797087366	0	0	5	0.988429411095	-2.77000247069	154	1	1.1	0.9	;
	192	2	149.741244045	14.9750526557	0	0	5	0.991506204046	-1.48189815504	154	1	1.1	0.9	;
	193	2	42.7148698264	4.27148698264	0	0	5	0.981752447554	-9.0182564049	345	1	1.05	0.95	;
];

% generator data
%	bus	Pg	Qg	Qmax	Qmin	Vg	mBase	status	Pmax	Pmin	Pc1	Pc2	Qc1min	Qc1max	Qc2min	Qc2max	ramp_agc	ramp_10	ramp_30	ramp_q	apf
mpc.gen = [
	3	0	0	362.5	-362.5	1.04501173245	100	0	725	377	0	0	0	0	0	0	0	120.8333333	362.5	362.5	0	;
	3	0	0	362.5	-362.5	1.04501173245	100	0	725	377	0	0	0	0	0	0	0	120.8333333	362.5	362.5	0	;
	3	0	0	437.1	-437.1	1.04501173245	100	0	874.2	454.584	0	0	0	0	0	0	0	145.7	437.1	437.1	0	;
	4	0	0	262.15	-262.15	1.04663323733	100	0	524.3	272.636	0	0	0	0	0	0	0	87.38333333	262.15	262.15	0	;
	4	0	0	429.2	-429.2	1.04663323733	100	0	858.4	446.368	0	0	0	0	0	0	0	143.0666667	429.2	429.2	0	;
	4	0	0	429.2	-429.2	1.04663323733	100	0	858.4	446.368	0	0	0	0	0	0	0	143.0666667	429.2	429.2	0	;
	8	0	0	423.8	-423.8	1.04649286736	100	0	847.6	440.752	0	0	0	0	0	0	0	141.2666667	423.8	423.8	0	;
	8	0	0	423.8	-423.8	1.04649286736	100	0	847.6	440.752	0	0	0	0	0	0	0	141.2666667	423.8	423.8	0	;
	8	514.887533112	53.3215477291	257.75	-257.75	1.04649286736	100	1	515.5	268.06	0	0	0	0	0	0	0	85.91666667	257.75	257.75	0	;
	9	0	0	57.705	-57.705	1.04772936855	100	0	115.41	60.0132	0	0	0	0	0	0	0	19.235	57.705	57.705	0	;
	9	0	0	18.5	-18.5	1.04772936855	100	0	37	19.24	0	0	0	0	0	0	0	6.166666667	18.5	18.5	0	;
	10	0	0	300	-300	1.04789909626	100	0	600	312	0	0	0	0	0	0	0	100	300	300	0	;
	10	299.729272474	52.1774274477	150	-150	1.04789909626	100	1	300	156	0	0	0	0	0	0	0	50	150	150	0	;
	19	0	0	184.5865	-184.5865	1.0478420348	100	0	369.173	191.96996	0	0	0	0	0	0	0	61.52883333	184.5865	184.5865	0	;
	19	368.816494772	51.7186379338	184.5865	-184.5865	1.0478420348	100	1	369.173	191.96996	0	0	0	0	0	0	0	61.52883333	184.5865	184.5865	0	;
	20	363.412617104	63.1036532645	181.9055	-181.9055	1.04568318734	100	1	363.811	189.18172	0	0	0	0	0	0	0	60.63516667	181.9055	181.9055	0	;
	21	449.771955724	35.7878863264	225	-225	1.04593523922	100	1	450	234	0	0	0	0	0	0	0	75	225	225	0	;
	21	0	0	225	-225	1.04593523922	100	0	450	234	0	0	0	0	0	0	0	75	225	225	0	;
	21	0	0	225	-225	1.04593523922	100	0	450	234	0	0	0	0	0	0	0	75	225	225	0	;
	21	0	0	225	-225	1.04593523922	100	0	450	234	0	0	0	0	0	0	0	75	225	225	0	;
	24	0	0	10.5	-10.5	1.04717815353	100	0	21	10.92	0	0	0	0	0	0	0	3.5	10.5	10.5	0	;
	26	0	0	0	0	1.0474788445	100	0	0	0	0	0	0	0	0	0	0	0	0	0	0	;
	27	126.833077221	23.4734907406	63.5	-63.5	1.04921982288	100	1	127	66.04	0	0	0	0	0	0	0	21.16666667	63.5	63.5	0	;
	27	187.10140673	26.5828992868	93.65	-93.65	1.04921982288	100	1	187.3	97.396	0	0	0	0	0	0	0	31.21666667	93.65	93.65	0	;
	34	224.788065217	32.5947198271	112.5	-112.5	1.04800724618	100	1	225	117	0	0	0	0	0	0	0	37.5	112.5	112.5	0	;
	34	224.788065217	32.5947198271	112.5	-112.5	1.04800724618	100	1	225	117	0	0	0	0	0	0	0	37.5	112.5	112.5	0	;
	34	224.788065217	32.5947198271	112.5	-112.5	1.04800724618	100	1	225	117	0	0	0	0	0	0	0	37.5	112.5	112.5	0	;
	34	224.788065217	32.5947198271	112.5	-112.5	1.04800724618	100	1	225	117	0	0	0	0	0	0	0	37.5	112.5	112.5	0	;
	34	224.788065217	32.5947198271	112.5	-112.5	1.04800724618	100	1	225	117	0	0	0	0	0	0	0	37.5	112.5	112.5	0	;
	34	224.788065217	32.5947198271	112.5	-112.5	1.04800724618	100	1	225	117	0	0	0	0	0	0	0	37.5	112.5	112.5	0	;
	34	0	0	112.5	-112.5	1.04800724618	100	0	225	117	0	0	0	0	0	0	0	37.5	112.5	112.5	0	;
	34	224.788065217	32.5947198271	112.5	-112.5	1.04800724618	100	1	225	117	0	0	0	0	0	0	0	37.5	112.5	112.5	0	;
	34	0	0	251.7695	-251.7695	1.04800724618	100	0	503.539	261.84028	0	0	0	0	0	0	0	83.92316667	251.7695	251.7695	0	;
	34	0	0	254.454	-254.454	1.04800724618	100	0	508.908	264.63216	0	0	0	0	0	0	0	84.818	254.454	254.454	0	;
	34	0	0	225	-225	1.04800724618	100	0	450	234	0	0	0	0	0	0	0	75	225	225	0	;
	34	449.743261924	31.5214061686	225	-225	1.04800724618	100	1	450	234	0	0	0	0	0	0	0	75	225	225	0	;
	34	0	0	225	-225	1.04800724618	100	0	450	234	0	0	0	0	0	0	0	75	225	225	0	;
	34	0	0	287.3	-287.3	1.04800724618	100	0	574.6	298.792	0	0	0	0	0	0	0	95.76666667	287.3	287.3	0	;
	34	574.321408298	28.7865378462	287.3	-287.3	1.04800724618	100	1	574.6	298.792	0	0	0	0	0	0	0	95.76666667	287.3	287.3	0	;
	34	0	0	187.8	-187.8	1.04800724618	100	0	375.6	195.312	0	0	0	0	0	0	0	62.6	187.8	187.8	0	;
	34	375.339722462	32.8670339154	187.8	-187.8	1.04800724618	100	1	375.6	195.312	0	0	0	0	0	0	0	62.6	187.8	187.8	0	;
	34	375.419439559	32.8670339154	187.8	-187.8	1.04800724618	100	1	375.6	195.312	0	0	0	0	0	0	0	62.6	187.8	187.8	0	;
	36	0	0	0	0	1.04673789838	100	0	0	0	0	0	0	0	0	0	0	0	0	0	0	;
	36	0	0	0	0	1.04673789838	100	0	0	0	0	0	0	0	0	0	0	0	0	0	0	;
	36	0	0	206.3	-206.3	1.04673789838	100	0	412.6	214.552	0	0	0	0	0	0	0	68.76666667	206.3	206.3	0	;
	36	146.131622471	39.2113091896	73.157	-73.157	1.04673789838	100	1	146.314	76.08328	0	0	0	0	0	0	0	24.38566667	73.157	73.157	0	;
	37	0	0	12	-12	1.0459799735	100	0	24	12.48	0	0	0	0	0	0	0	4	12	12	0	;
	39	0	0	240.845	-240.845	1.03954303807	100	0	481.69	250.4788	0	0	0	0	0	0	0	80.28166667	240.845	240.845	0	;
	39	0	0	240.845	-240.845	1.03954303807	100	0	481.69	250.4788	0	0	0	0	0	0	0	80.28166667	240.845	240.845	0	;
	40	0	0	30	-30	1.04371787113	100	0	60	31.2	0	0	0	0	0	0	0	10	30	30	0	;
	40	0	0	375.6	-375.6	1.04371787113	100	0	751.2	390.624	0	0	0	0	0	0	0	125.2	375.6	375.6	0	;
	40	0	0	0	0	1.04371787113	100	0	0	0	0	0	0	0	0	0	0	0	0	0	0	;
	40	0	0	0	0	1.04371787113	100	0	0	0	0	0	0	0	0	0	0	0	0	0	0	;
	40	0	0	0	0	1.04371787113	100	0	0	0	0	0	0	0	0	0	0	0	0	0	0	;
	40	869.77926659	31.9874710947	435	-435	1.04371787113	100	1	870	348	0	0	0	0	0	0	0	95.7	287.1	435	0	;
	40	869.77926659	31.9874710947	435	-435	1.04371787113	100	1	870	348	0	0	0	0	0	0	0	95.7	287.1	435	0	;
	40	869.77926659	31.9874710947	435	-435	1.04371787113	100	1	870	348	0	0	0	0	0	0	0	95.7	287.1	435	0	;
	43	144.6518449	32.5631508479	72.394	-72.394	1.03949902755	100	1	144.788	75.28976	0	0	0	0	0	0	0	24.13133333	72.394	72.394	0	;
	43	0	0	0	0	1.03949902755	100	0	0	0	0	0	0	0	0	0	0	0	0	0	0	;
	45	0	0	255.9	-255.9	1.03950591343	100	0	511.8	266.136	0	0	0	0	0	0	0	85.3	255.9	255.9	0	;
	47	0	0	0	0	1.03707387085	100	0	0	0	0	0	0	0	0	0	0	0	0	0	0	;
	47	0	0	0	0	1.03707387085	100	0	0	0	0	0	0	0	0	0	0	0	0	0	0	;
	47	0	0	0	0	1.03707387085	100	0	0	0	0	0	0	0	0	0	0	0	0	0	0	;
	47	0	0	0	0	1.03707387085	100	0	0	0	0	0	0	0	0	0	0	0	0	0	0	;
	47	0	0	434.25	-434.25	1.03707387085	100	0	868.5	451.62	0	0	0	0	0	0	0	144.75	434.25	434.25	0	;
	47	0	0	431.65	-431.65	1.03707387085	100	0	863.3	448.916	0	0	0	0	0	0	0	143.8833333	431.65	431.65	0	;
	48	0	0	218.05	-218.05	1.03960594244	100	0	436.1	226.772	0	0	0	0	0	0	0	72.68333333	218.05	218.05	0	;
	48	0	0	189.19	-189.19	1.03960594244	100	0	378.38	196.7576	0	0	0	0	0	0	0	63.06333333	189.19	189.19	0	;
	48	378.102145141	48.2991821776	189.19	-189.19	1.03960594244	100	1	378.38	196.7576	0	0	0	0	0	0	0	63.06333333	189.19	189.19	0	;
	49	0	0	384.915	-384.915	1.03462486561	100	0	769.83	400.3116	0	0	0	0	0	0	0	128.305	384.915	384.915	0	;
	53	0	0	250.375	-250.375	1.03923332731	100	0	500.75	260.39	0	0	0	0	0	0	0	83.45833333	250.375	250.375	0	;
	53	0	0	266.5	-266.5	1.03923332731	100	0	533	277.16	0	0	0	0	0	0	0	88.83333333	266.5	266.5	0	;
	53	0	0	191	-191	1.03923332731	100	0	382	198.64	0	0	0	0	0	0	0	63.66666667	191	191	0	;
	53	0	0	423	-423	1.03923332731	100	0	846	439.92	0	0	0	0	0	0	0	141	423	423	0	;
	53	0	0	0	0	1.03923332731	100	0	0	0	0	0	0	0	0	0	0	0	0	0	0	;
	53	0	0	0	0	1.03923332731	100	0	0	0	0	0	0	0	0	0	0	0	0	0	0	;
	53	499.704688508	7.34565602309	250	-250	1.03923332731	100	1	500	200	0	0	0	0	0	0	0	55	165	250	0	;
	53	499.704688508	7.34565602309	250	-250	1.03923332731	100	1	500	200	0	0	0	0	0	0	0	55	165	250	0	;
	53	0	0	0	0	1.03923332731	100	0	0	0	0	0	0	0	0	0	0	0	0	0	0	;
	53	0	0	0	0	1.03923332731	100	0	0	0	0	0	0	0	0	0	0	0	0	0	0	;
	53	0	0	0	0	1.03923332731	100	0	0	0	0	0	0	0	0	0	0	0	0	0	0	;
	53	0	0	0	0	1.03923332731	100	0	0	0	0	0	0	0	0	0	0	0	0	0	0	;
	53	1019.73787314	3.0448893775	510	-510	1.03923332731	100	1	1020	408	0	0	0	0	0	0	0	112.2	336.6	510	0	;
	53	1019.73787314	3.0448893775	510	-510	1.03923332731	100	1	1020	408	0	0	0	0	0	0	0	112.2	336.6	510	0	;
	57	0	0	50.85	-50.85	1.033132915	100	0	101.7	52.884	0	0	0	0	0	0	0	16.95	50.85	50.85	0	;
	58	0	0	0	0	1.03775810396	100	0	0	0	0	0	0	0	0	0	0	0	0	0	0	;
	59	0	0	173.165	-173.165	1.03887926645	100	0	346.33	180.0916	0	0	0	0	0	0	0	57.72166667	173.165	173.165	0	;
	59	0	0	0	0	1.03887926645	100	0	0	0	0	0	0	0	0	0	0	0	0	0	0	;
	59	0	0	0	0	1.03887926645	100	0	0	0	0	0	0	0	0	0	0	0	0	0	0	;
	59	0	0	0	0	1.03887926645	100	0	0	0	0	0	0	0	0	0	0	0	0	0	0	;
	59	0	0	0	0	1.03887926645	100	0	0	0	0	0	0	0	0	0	0	0	0	0	0	;
	59	0	0	0	0	1.03887926645	100	0	0	0	0	0	0	0	0	0	0	0	0	0	0	;
	59	0	0	0	0	1.03887926645	100	0	0	0	0	0	0	0	0	0	0	0	0	0	0	;
	59	0	0	0	0	1.03887926645	100	0	0	0	0	0	0	0	0	0	0	0	0	0	0	;
	59	0	0	0	0	1.03887926645	100	0	0	0	0	0	0	0	0	0	0	0	0	0	0	;
	59	1049.7302763	-0.490162585111	525	-525	1.03887926645	100	1	1050	420	0	0	0	0	0	0	0	115.5	346.5	525	0	;
	59	1049.7302763	-0.490162585111	525	-525	1.03887926645	100	1	1050	420	0	0	0	0	0	0	0	115.5	346.5	525	0	;
	62	0	0	0	0	1.03351935935	100	0	0	0	0	0	0	0	0	0	0	0	0	0	0	;
	64	0	0	265.2205	-265.2205	1.02537522613	100	0	530.441	275.82932	0	0	0	0	0	0	0	88.40683333	265.2205	265.2205	0	;
	70	0	0	215.6	-215.6	1.04064573226	100	0	431.2	224.224	0	0	0	0	0	0	0	71.86666667	215.6	215.6	0	;
	71	1039.67163126	51.9831048502	520	-520	1.04964015611	100	1	1040	416	0	0	0	0	0	0	0	114.4	343.2	520	0	;
	73	0	0	0	0	1.04706960848	100	0	0	0	0	0	0	0	0	0	0	0	0	0	0	;
	73	0	0	0	0	1.04706960848	100	0	0	0	0	0	0	0	0	0	0	0	0	0	0	;
	73	594.689399291	68.4175899912	297.5	-297.5	1.04706960848	100	1	595	238	0	0	0	0	0	0	0	65.45	196.35	297.5	0	;
	73	594.73207003	68.4175899912	297.5	-297.5	1.04706960848	100	1	595	238	0	0	0	0	0	0	0	65.45	196.35	297.5	0	;
	79	0	0	424	-424	1.02511261468	100	0	848	440.96	0	0	0	0	0	0	0	141.3333333	424	424	0	;
	75	503.588230707	58.9545267927	511	-511	1.04991065121	100	1	1022	408.8	0	0	0	0	0	0	0	112.42	337.26	511	0	;
	75	503.588230707	58.9545267927	511	-511	1.04991065121	100	1	1022	408.8	0	0	0	0	0	0	0	112.42	337.26	511	0	;
	82	903.215198095	-25.8637651907	475	-475	1.04413016374	100	1	950	902.5	0	0	0	0	0	0	0	28.5	85.5	475	0	;
	82	903.215198095	-25.8637651907	475	-475	1.04413016374	100	1	950	902.5	0	0	0	0	0	0	0	28.5	85.5	475	0	;
	82	950.699555034	-26.0122108063	500	-500	1.04413016374	100	1	1000	950	0	0	0	0	0	0	0	30	90	500	0	;
	82	950.699555034	-26.0122108063	500	-500	1.04413016374	100	1	1000	950	0	0	0	0	0	0	0	30	90	500	0	;
	82	950.699555034	-26.0122108063	500	-500	1.04413016374	100	1	1000	950	0	0	0	0	0	0	0	30	90	500	0	;
	82	950.699555034	-26.0122108063	500	-500	1.04413016374	100	1	1000	950	0	0	0	0	0	0	0	30	90	500	0	;
	82	1330.59990208	-26.6637735901	700	-700	1.04413016374	100	1	1400	1330	0	0	0	0	0	0	0	42	126	700	0	;
	87	361.2882298	-33.6089979276	180.8	-180.8	1.02136167508	100	1	361.6	188.032	0	0	0	0	0	0	0	60.26666667	180.8	180.8	0	;
	98	0	0	44	-44	1.01742417203	100	0	88	45.76	0	0	0	0	0	0	0	14.66666667	44	44	0	;
	99	0	0	24.15	-24.15	1.01665823785	100	0	48.3	25.116	0	0	0	0	0	0	0	8.05	24.15	24.15	0	;
	100	449.791339351	-21.830288979	225	-225	1.0305463358	100	1	450	234	0	0	0	0	0	0	0	75	225	225	0	;
	100	0	0	225	-225	1.0305463358	100	0	450	234	0	0	0	0	0	0	0	75	225	225	0	;
	100	0	0	225	-225	1.0305463358	100	0	450	234	0	0	0	0	0	0	0	75	225	225	0	;
	100	0	0	0	0	1.0305463358	100	0	0	0	0	0	0	0	0	0	0	0	0	0	0	;
	100	0	0	0	0	1.0305463358	100	0	0	0	0	0	0	0	0	0	0	0	0	0	0	;
	100	0	0	0	0	1.0305463358	100	0	0	0	0	0	0	0	0	0	0	0	0	0	0	;
	100	0	0	0	0	1.0305463358	100	0	0	0	0	0	0	0	0	0	0	0	0	0	0	;
	100	0	0	0	0	1.0305463358	100	0	0	0	0	0	0	0	0	0	0	0	0	0	0	;
	100	0	0	0	0	1.0305463358	100	0	0	0	0	0	0	0	0	0	0	0	0	0	0	;
	100	1018.75533579	-27.2950248168	509.515	-509.515	1.0305463358	100	1	1019.03	407.612	0	0	0	0	0	0	0	112.0933	336.2799	509.515	0	;
	100	1018.75533579	-27.2950248168	509.515	-509.515	1.0305463358	100	1	1019.03	407.612	0	0	0	0	0	0	0	112.0933	336.2799	509.515	0	;
	106	1017.30071962	-78.0919416996	509	-509	1.01927502437	100	1	1018	407.2	0	0	0	0	0	0	0	111.98	335.94	509	0	;
	108	0	0	359.2	-359.2	1.01945017045	100	0	718.4	373.568	0	0	0	0	0	0	0	119.7333333	359.2	359.2	0	;
	124	949.862504856	-168.754362731	475	-475	0.994718936505	100	1	950	902.5	0	0	0	0	0	0	0	28.5	85.5	475	0	;
	124	949.862504856	-168.754362731	475	-475	0.994718936505	100	1	950	902.5	0	0	0	0	0	0	0	28.5	85.5	475	0	;
	124	999.8580127	-169.519696754	500	-500	0.994718936505	100	1	1000	950	0	0	0	0	0	0	0	30	90	500	0	;
	124	999.8580127	-169.519696754	500	-500	0.994718936505	100	1	1000	950	0	0	0	0	0	0	0	30	90	500	0	;
	124	999.8580127	-169.519696754	500	-500	0.994718936505	100	1	1000	950	0	0	0	0	0	0	0	30	90	500	0	;
	124	999.8580127	-169.519696754	500	-500	0.994718936505	100	1	1000	950	0	0	0	0	0	0	0	30	90	500	0	;
	128	0	0	57.623	-57.623	0.994696049661	100	0	115.246	59.92792	0	0	0	0	0	0	0	19.20766667	57.623	57.623	0	;
	134	0	0	262.75	-262.75	0.982535433844	100	0	525.5	273.26	0	0	0	0	0	0	0	87.58333333	262.75	262.75	0	;
	134	0	0	432.1	-432.1	0.982535433844	100	0	864.2	449.384	0	0	0	0	0	0	0	144.0333333	432.1	432.1	0	;
	134	0	0	247.3	-247.3	0.982535433844	100	0	494.6	257.192	0	0	0	0	0	0	0	82.43333333	247.3	247.3	0	;
	134	494.32851047	-247.299764694	247.3	-247.3	0.982535433844	100	1	494.6	257.192	0	0	0	0	0	0	0	82.43333333	247.3	247.3	0	;
	137	339.6755299	-169.979580174	170	-170	0.97474690462	100	1	340	136	0	0	0	0	0	0	0	37.4	112.2	170	0	;
	137	328.290828856	-164.158042493	164.3	-164.3	0.97474690462	100	1	328.6	131.44	0	0	0	0	0	0	0	36.146	108.438	164.3	0	;
	156	370.40992529	175.303354443	185.35	-185.35	1.00025960576	100	1	370.7	192.764	0	0	0	0	0	0	0	61.78333333	185.35	185.35	0	;
	160	0	0	0	0	0.997366623811	100	0	0	0	0	0	0	0	0	0	0	0	0	0	0	;
	166	699.797556297	144.355863069	350	-350	1.01685026398	100	1	700	665	0	0	0	0	0	0	0	21	63	350	0	;
	166	699.797556297	144.355863069	350	-350	1.01685026398	100	1	700	665	0	0	0	0	0	0	0	21	63	350	0	;
	166	699.797556297	144.355863069	350	-350	1.01685026398	100	1	700	665	0	0	0	0	0	0	0	21	63	350	0	;
	166	999.771633023	153.543075977	500	-500	1.01685026398	100	1	1000	950	0	0	0	0	0	0	0	30	90	500	0	;
	166	999.771633023	153.543075977	500	-500	1.01685026398	100	1	1000	950	0	0	0	0	0	0	0	30	90	500	0	;
	167	299.682802	91.8496974316	150	-150	1.01435258839	100	1	300	156	0	0	0	0	0	0	0	50	150	150	0	;
	167	449.860175943	115.105483908	225	-225	1.01435258839	100	1	450	234	0	0	0	0	0	0	0	75	225	225	0	;
	167	449.64879153	115.105483908	225	-225	1.01435258839	100	1	450	234	0	0	0	0	0	0	0	75	225	225	0	;
	167	0	0	435.95	-435.95	1.01435258839	100	0	871.9	453.388	0	0	0	0	0	0	0	145.3166667	435.95	435.95	0	;
	167	442.698192076	114.289999853	221.4	-221.4	1.01435258839	100	1	442.8	230.256	0	0	0	0	0	0	0	73.8	221.4	221.4	0	;
	172	0	0	22.918	-22.918	0.991848075471	100	0	45.836	23.83472	0	0	0	0	0	0	0	7.639333333	22.918	22.918	0	;
	175	625.297252789	-60.2877400626	325	-325	0.995108913672	100	1	650	617.5	0	0	0	0	0	0	0	19.5	58.5	325	0	;
	175	920.138129996	-65.307236409	475	-475	0.995108913672	100	1	950	902.5	0	0	0	0	0	0	0	28.5	85.5	475	0	;
	175	920.138129996	-65.307236409	475	-475	0.995108913672	100	1	950	902.5	0	0	0	0	0	0	0	28.5	85.5	475	0	;
	175	969.493067826	-65.7883829846	500	-500	0.995108913672	100	1	1000	950	0	0	0	0	0	0	0	30	90	500	0	;
	175	969.493067826	-65.7883829846	500	-500	0.995108913672	100	1	1000	950	0	0	0	0	0	0	0	30	90	500	0	;
	175	1364.49951343	-68.090246081	700	-700	0.995108913672	100	1	1400	1330	0	0	0	0	0	0	0	42	126	700	0	;
	175	1364.49951343	-68.090246081	700	-700	0.995108913672	100	1	1400	1330	0	0	0	0	0	0	0	42	126	700	0	;
	180	0	0	13.15	-13.15	0.985572981888	100	0	26.3	13.676	0	0	0	0	0	0	0	4.383333333	13.15	13.15	0	;
	186	373.153509542	-37.7567894179	225	-225	0.989327841878	100	1	450	234	0	0	0	0	0	0	0	75	225	225	0	;
	186	364.323350215	-37.7567894179	225	-225	0.989327841878	100	1	450	234	0	0	0	0	0	0	0	75	225	225	0	;
	186	364.323350215	-37.7567894179	225	-225	0.989327841878	100	1	450	234	0	0	0	0	0	0	0	75	225	225	0	;
	186	364.458828804	-37.7567894179	225	-225	0.989327841878	100	1	450	234	0	0	0	0	0	0	0	75	225	225	0	;
	190	0	0	0	0	1	100	0	0	0	0	0	0	0	0	0	0	0	0	0	0	;
	190	0	0	0	0	1	100	0	0	0	0	0	0	0	0	0	0	0	0	0	0	;
	190	0	0	0	0	1	100	0	0	0	0	0	0	0	0	0	0	0	0	0	0	;
	190	0	0	0	0	1	100	0	0	0	0	0	0	0	0	0	0	0	0	0	0	;
	190	987.965752673	72.0289446961	520	-520	1	100	1	1040	416	0	0	0	0	0	0	0	114.4	343.2	520	0	;
	190	987.965752673	72.0289446961	520	-520	1	100	1	1040	416	0	0	0	0	0	0	0	114.4	343.2	520	0	;
	193	0	0	0	0	0.981752447554	100	0	0	0	0	0	0	0	0	0	0	0	0	0	0	;
	193	0	0	0	0	0.981752447554	100	0	0	0	0	0	0	0	0	0	0	0	0	0	0	;
	193	0	0	0	0	0.981752447554	100	0	0	0	0	0	0	0	0	0	0	0	0	0	0	;
	193	0	0	0	0	0.981752447554	100	0	0	0	0	0	0	0	0	0	0	0	0	0	0	;
	193	0	0	0	0	0.981752447554	100	0	0	0	0	0	0	0	0	0	0	0	0	0	0	;
	193	0	0	0	0	0.981752447554	100	0	0	0	0	0	0	0	0	0	0	0	0	0	0	;
	193	349.616080651	-63.8301280173	250	-250	0.981752447554	100	1	500	200	0	0	0	0	0	0	0	55	165	250	0	;
	193	349.616080651	-63.8301280173	250	-250	0.981752447554	100	1	500	200	0	0	0	0	0	0	0	55	165	250	0	;
	71	1039.67163126	51.9831048502	520	-520	1.04964015611	100	1	1040	416	0	0	0	0	0	0	0	114.4	343.2	520	0	;
	60	0	0	247.5	-247.5	1.03580490415	100	0	495	257.4	0	0	0	0	0	0	0	82.5	247.5	247.5	0	;
	42	1025.20836364	74.8160625717	512.7	-512.7	1.03591647554	100	1	1025.4	533.208	0	0	0	0	0	0	0	170.9	512.7	512.7	0	;
	11	0	0	0	0	1.0455007452	100	0	0	0	0	0	0	0	0	0	0	0	0	0	0	;
	172	118.841579438	43.5794009364	59.486	-59.486	0.991848075471	100	1	118.972	61.86544	0	0	0	0	0	0	0	19.8286666667	59.486	59.486	0	;
	82	1330.59990208	-26.6637735901	700	-700	1.04413016374	100	1	1400	1330	0	0	0	0	0	0	0	42	126	700	0	;
	75	515.149865431	58.8325424517	525	-525	1.04991065121	100	1	1050	420	0	0	0	0	0	0	0	115.5	346.5	525	0	;
	64	0	0	298.5855	-298.5855	1.02537522613	100	0	597.171	310.52892	0	0	0	0	0	0	0	99.5285	298.5855	298.5855	0	;
	160	0	0	135	-135	0.997366623811	100	0	270	140.4	0	0	0	0	0	0	0	45	135	135	0	;
	192	1011.94345096	-57.3757197998	506	-506	0.991506204046	100	1	1012	526.24	0	0	0	0	0	0	0	168.666666667	506	506	0	;
	167	1104.51042951	141.756746987	552.3	-552.3	1.01435258839	100	1	1104.6	574.392	0	0	0	0	0	0	0	184.1	552.3	552.3	0	;
	75	0	0	525	-525	1.04991065121	100	0	1050	546	0	0	0	0	0	0	0	175	525	525	0	;
	62	0	0	135	-135	1.03351935935	100	0	270	140.4	0	0	0	0	0	0	0	45	135	135	0	;
	52	0	0	280.5	-280.5	1.03111084518	100	0	561	291.72	0	0	0	0	0	0	0	93.5	280.5	280.5	0	;
	11	0	0	247.73	-247.73	1.0455007452	100	0	495.46	257.6392	0	0	0	0	0	0	0	82.5766666667	247.73	247.73	0	;
	24	0	0	142.5	-142.5	1.04717815353	100	0	285	148.2	0	0	0	0	0	0	0	47.5	142.5	142.5	0	;
	26	0	0	249	-249	1.0474788445	100	0	498	258.96	0	0	0	0	0	0	0	83	249	249	0	;
...
];

% branch data
%	fbus	tbus	r	x	b	rateA	rateB	rateC	ratio	angle	status	angmin	angmax	Pf	Qf	Pt	Qt
mpc.branch = [
	1	2	0.001953667	0.017794207	0.057753945	904	904	904	0	0	1	-30	30	172.683388237	-35.7428446681	-172.128041952	34.5097837673	;
	1	3	0.002346024	0.021367842	0.069352749	904	904	904	0	0	1	-30	30	137.021552217	-30.0244945546	-136.60124134	26.2985560255	;
	1	66	0.002789894	0.025410654	0.082474341	904	904	904	0	0	1	-30	30	-385.743019767	58.1635314246	389.664837898	-31.3988020567	;
	2	3	0.000230027	0.002463512	0.207508013	2172	2172	2172	0	0	1	-30	30	-58.9730215663	-2.79205338471	58.9804997762	-19.7902901383	;
	2	4	0.001097043	0.009991982	0.032430577	904	904	904	0	0	1	-30	30	78.4796770354	-26.3082429198	-78.4117657021	23.3794680962	;
	2	6	0.004587512	0.041783555	0.135615211	904	904	904	0	0	1	-30	30	60.7195705907	-14.5996690081	-60.5625389671	1.21098900667	;
	3	4	0.000157872	0.001690763	0.142417379	2172	2172	2172	0	0	1	-30	30	552.951010935	-157.143671503	-552.476743578	146.646102061	;
	3	7	0.001539844	0.014025061	0.04552058	904	904	904	0	0	1	-30	30	107.168168899	-39.8496399602	-106.986539103	36.5159936228	;
	3	28	0.000668777	0.007162388	0.603306441	2172	2172	2172	0	0	1	-30	30	-1003.99588498	148.335301185	1010.37022398	-145.722768639	;
	4	7	0.001330617	0.012119404	0.039335464	904	904	904	0	0	1	-30	30	47.2389725566	-23.7889613736	-47.2061812443	19.7707464974	;
	4	8	0.000413018	0.004423289	0.372585094	2172	2172	2172	0	0	1	-30	30	243.077400233	-38.5729939403	-242.853379686	0.163151166609	;
	5	16	0.00309813	0.028218105	0.091586372	904	904	904	0	0	1	-30	30	613.976290688	-19.3434923527	-603.378605627	105.780872814	;
	5	20	0.003233724	0.029453105	0.095594761	904	904	904	0	0	1	-30	30	558.685412875	-8.85052654397	-549.531046586	81.732805489	;
	5	66	0.002753227	0.025076687	0.081390398	904	904	904	0	0	1	-30	30	117.207698434	18.8223363764	-116.851105474	-24.4782594179	;
	5	70	0.001710666	0.015580931	0.050570403	904	904	904	0	0	1	-30	30	190.254232462	42.2099340949	-189.661244817	-42.3351882502	;
	6	8	0.001796592	0.016363559	0.053110546	904	904	904	0	0	1	-30	30	-41.7247508345	-4.01082865689	41.753381173	-1.53973162418	;
	6	11	0.001545809	0.014079394	0.045696926	904	904	904	0	0	1	-30	30	2.78676507239	-2.19761996348	-2.78665398797	-2.7967601349	;
	7	9	0.000740338	0.006743076	0.021885732	904	904	904	0	0	1	-30	30	14.7349011169	10.0009152975	-14.7325938549	-12.3842685588	;
	7	14	0.000255269	0.002733843	0.230278712	2172	2172	2172	0	0	1	-30	30	65.2752405357	9.5327042982	-65.2642044425	-34.7150696183	;
	7	28	0.000583767	0.00625196	0.526618746	2172	2172	2172	0	0	1	-30	30	-1392.80720189	279.601694354	1403.61276674	-221.381847714	;
	8	10	0.000160584	0.000184873	0.901984702	1416	1416	1416	0	0	1	-30	30	-966.25046674	-5.24766346698	967.622341982	-92.0863984929	;
	8	11	0.000158062	0.001692798	0.142588761	2172	2172	2172	0	0	1	-30	30	427.184859539	15.0355478406	-426.920724074	-27.8075066455	;
	8	14	0.000269282	0.002883925	0.242920462	2172	2172	2172	0	0	1	-30	30	-111.239726815	-50.823680007	111.273615335	24.5495545422	;
	9	12	0.000119405	0.000137466	0.167672111	708	708	708	0	0	1	-30	30	163.534286738	-79.2182255227	-163.499864623	60.8535286177	;
	9	13	0.000176983	0.000203752	0.248523638	708	708	708	0	0	1	-30	30	-81.419726542	-36.2964081381	81.4312419881	9.02358125359	;
	9	15	0.000297907	0.000342968	0.41832935	708	708	708	0	0	1	-30	30	-426.301154599	101.50837165	426.836390176	-146.849077078	;
	10	14	0.00105221	0.00958364	0.031105236	904	904	904	0	0	1	-30	30	-12.8067907049	0.599595438078	12.8084133295	-4.0001926285	;
	10	24	0.000243464	0.000280289	1.367512381	1416	1416	1416	0	0	1	-30	30	289.67300175	-57.0675836367	-289.486239811	-92.7796403295	;
	11	21	0.00015784	0.00169041	0.142387631	2172	2172	2172	0	0	1	-30	30	-148.316819469	-20.6388032531	148.348823183	5.41109156856	;
	11	25	0.00110679	0.010080759	0.032718716	904	904	904	0	0	1	-30	30	-53.7798971403	-6.23695264325	53.8093832965	2.92566535625	;
	12	14	0.000665432	0.00606083	0.019671394	904	904	904	0	0	1	-30	30	7.9401507404	-5.10296387109	-7.93967034761	2.94795133831	;
	12	18	0.000258897	0.000298056	0.363549377	708	708	708	0	0	1	-30	30	-210.146121117	-92.321148368	210.262647545	52.5267080254	;
	13	16	0.000661549	0.006025463	0.019556605	904	904	904	0	0	1	-30	30	-43.9770632916	-13.5741876237	43.9896557323	11.5392873574	;
	13	17	0.000189196	0.000217813	0.265674267	708	708	708	0	0	1	-30	30	-348.314501355	-21.2745982754	348.523607287	-7.67672785259	;
	13	22	0.000821755	0.00748463	0.024292563	904	904	904	0	0	1	-30	30	-41.4378692578	-7.49635602394	41.4510030163	4.94641236347	;
	14	18	9.94e-05	0.000114489	0.558582953	1416	1416	1416	0	0	1	-30	30	-717.632296778	95.9135391559	718.113052487	-156.719591753	;
	14	19	2.7e-05	6.2e-05	1.344867636	1906	1906	1906	0	0	1	-30	30	-69.1513885185	-85.4384887341	69.1525976349	-62.218081406	;
	14	23	0.000322118	0.000370841	0.45232683	708	708	708	0	0	1	-30	30	313.190801021	-41.5287651727	-312.902202199	-7.758121243	;
	15	16	0.000110729	0.000127478	0.155489196	708	708	708	0	0	1	-30	30	-536.851819681	149.819793254	537.167350442	-166.557542937	;
	16	17	1.61e-05	3.7e-05	7.216516162	5718	5718	5718	0	0	1	-30	30	4511.29208387	-1345.99609661	-4508.1821098	559.442609372	;
	16	20	0.000640865	0.005837068	0.018945138	904	904	904	0	0	1	-30	30	-139.019995392	72.7864530711	139.164320738	-73.5498873976	;
	16	22	3.29e-05	7.57e-05	1.640782241	1906	1906	1906	0	0	1	-30	30	-421.988015777	412.129880694	422.116740539	-592.315038038	;
	16	28	0.000193401	0.002071259	0.697869898	4344	4344	4344	0	0	1	-30	30	-4120.01237327	896.457694978	4151.38727706	-636.673411111	;
	17	18	8.5e-06	1.95e-05	1.693948976	3812	3812	3812	0	0	1	-30	30	3578.76474041	-609.855257184	-3577.75394149	425.964727117	;
	18	19	3.3e-05	3.8e-05	0.742	2832	2832	2832	0	0	1	-30	30	2069.92421471	-407.804349622	-2068.59729071	327.822433693	;
	18	30	0.000754369	0.006870878	0.022300533	904	904	904	0	0	1	-30	30	-27.0231769787	25.3847763011	27.0330495374	-27.7422005794	;
	19	23	4.24e-05	4.88e-05	0.952412124	2832	2832	2832	0	0	1	-30	30	2452.41390552	-189.507640301	-2450.08410181	87.7093864288	;
	20	22	0.000644357	0.005868869	0.019048354	904	904	904	0	0	1	-30	30	130.680852979	-68.2767292346	-130.553578515	67.3471313715	;
	21	25	0.000588113	0.0053566	0.017385701	904	904	904	0	0	1	-30	30	-54.4334846178	-6.15841908013	54.4495592131	4.40181806133	;
	21	34	9.49e-05	0.001016882	0.085654572	2172	2172	2172	0	0	1	-30	30	-734.865873657	-146.809536083	735.351856337	142.627961768	;
	22	29	0.000157753	0.000181614	0.886083495	1416	1416	1416	0	0	1	-30	30	807.706712227	295.271026536	-806.60113474	-391.27540249	;
	22	36	0.000114952	0.001231098	0.103698609	2172	2172	2172	0	0	1	-30	30	42.4980078838	155.776874905	-42.4688640394	-166.847699503	;
	22	38	0.000222736	0.002385427	0.200930653	2172	2172	2172	0	0	1	-30	30	-516.575466049	263.005828473	517.268053381	-277.578955929	;
	22	46	0.000425686	0.004558955	0.384012537	2172	2172	2172	0	0	1	-30	30	-192.005612312	182.122410677	192.308201527	-220.791231813	;
	23	24	5.52e-05	0.000503	0.0147	2712	2712	2712	0	0	1	-30	30	151.70504224	-72.316812733	-151.690875826	70.8343320984	;
	23	32	2.02e-05	4.64e-05	1.00675716	1906	1906	1906	0	0	1	-30	30	1699.83134288	41.1763632543	-1699.29710605	-150.25372553	;
	23	33	0.000169968	0.000195677	0.238673524	708	708	708	0	0	1	-30	30	500.516732775	-81.6838892428	-500.12094202	55.9973056811	;
	24	26	0.000118	0.000136	0.664	1416	1416	1416	0	0	1	-30	30	-243.64314698	-56.5057557906	243.707459389	-16.2540827279	;
	25	26	0.00041452	0.003775492	0.012253963	904	904	904	0	0	1	-30	30	-87.2543317508	-17.7752354787	87.2842548919	16.7045000851	;
	25	34	0.000619848	0.00564564	0.018323828	904	904	904	0	0	1	-30	30	-80.8916922804	-19.6856944266	80.9307020582	18.0313283923	;
	26	32	0.000607908	0.005536893	0.01797087	904	904	904	0	0	1	-30	30	6.81987046797	15.9542372438	-6.8180228365	-17.9074348606	;
	26	34	4.5e-05	0.000103577	2.245327702	1906	1906	1906	0	0	1	-30	30	-1191.73628835	-139.131745138	1192.31887445	-106.011651906	;
	27	34	9.33e-05	0.000999417	0.336734	4344	4344	4344	0	0	1	-30	30	683.88893273	47.0088584129	-683.488904428	-79.7507671602	;
	28	38	0.001685665	0.015353221	0.049831335	904	904	904	0	0	1	-30	30	472.599680414	-53.6818804061	-469.087509018	80.255506419	;
	28	41	0.002015591	0.018358223	0.059584548	904	904	904	0	0	1	-30	30	-31.240371935	40.1681383513	31.2935184677	-46.1022264716	;
	28	50	9.99e-05	0.00321	1.63	7290	7290	7290	0	0	1	-30	30	2289.83137728	37.3059797053	-2284.9866178	-57.7749069997	;
	28	80	0.000122152	0.003924627	7.991861101	14580	14580	14580	0	0	1	-30	30	-8937.70968144	1519.94944144	9031.98733599	647.420133429	;
	29	30	8.04e-06	9.26e-06	0.04515506	1416	1416	1416	0	0	1	-30	30	693.968301112	42.0555611985	-693.93282512	-46.9631379485	;
	29	36	3.7e-05	8.52e-05	1.846241882	1906	1906	1906	0	0	1	-30	30	-518.975250264	286.354597604	519.116881142	-488.339318999	;
	30	31	0.00033011	0.003006676	0.009758648	904	904	904	0	0	1	-30	30	193.673877956	12.1396216637	-193.56039806	-12.1744232209	;
	31	33	0.000235829	0.000271499	0.331156608	708	708	708	0	0	1	-30	30	-172.014064994	-14.3286062243	172.077890516	-21.8331550989	;
	31	36	0.00107165	0.0097607	0.031679912	904	904	904	0	0	1	-30	30	-66.0646744144	-3.77527732846	66.1074765923	0.69701758832	;
	32	33	6.05e-05	6.97e-05	0.1912274	1062	1062	1062	0	0	1	-30	30	500.443222396	25.8124643344	-500.304154391	-46.5902355696	;
	32	37	0.000239942	0.002569698	0.216452349	2172	2172	2172	0	0	1	-30	30	108.423968002	1.12231734698	-108.397845301	-24.5368130245	;
	32	44	0.000338016	0.003620039	0.304925228	2172	2172	2172	0	0	1	-30	30	168.280504411	87.9317775977	-168.159322675	-119.898903022	;
	34	37	6.47e-05	0.000692975	0.058371101	2172	2172	2172	0	0	1	-30	30	637.763155122	245.033913629	-637.487249964	-248.477427856	;
	35	37	0.000950447	0.008656772	0.028096937	904	904	904	0	0	1	-30	30	-71.434005145	-18.8149823423	71.4811186672	16.1762486117	;
	35	40	0.001104834	0.01006295	0.032660912	904	904	904	0	0	1	-30	30	-91.3771780698	10.3351037893	91.4633247116	-13.1089311213	;
	36	38	0.000952048	0.00867136	0.028144286	904	904	904	0	0	1	-30	30	-146.735540435	53.1763672827	146.948648087	-54.3098338702	;
	36	43	0.001604892	0.014617531	0.047443535	904	904	904	0	0	1	-30	30	143.715941055	34.7677956122	-143.392950761	-36.9883396926	;
	36	44	0.000327256	0.003504805	0.295218756	2172	2172	2172	0	0	1	-30	30	333.033026771	84.1007841667	-332.671721409	-112.443359162	;
	36	46	0.000315296	0.00337672	0.284429868	2172	2172	2172	0	0	1	-30	30	-274.148510098	199.624819635	274.49806582	-226.864744088	;
	37	40	0.000119	0.00127	0.429	4344	4344	4344	0	0	1	-30	30	-242.52274711	185.964574847	242.634429029	-231.607057959	;
	38	42	0.001675214	0.015258027	0.049522368	904	904	904	0	0	1	-30	30	-103.992221414	62.2571478263	104.223452302	-65.5050788501	;
	38	45	0.001624604	0.014797065	0.048026242	904	904	904	0	0	1	-30	30	79.3640247521	18.0662397453	-79.2636910085	-22.3625342127	;
	38	46	0.001525585	0.013895192	0.045099066	904	904	904	0	0	1	-30	30	25.6057661683	16.9375369622	-25.5913139512	-21.7039283057	;
	38	84	0.000977268	0.010466224	0.881597169	2172	2172	2172	0	0	1	-30	30	-740.61518139	184.648861246	746.022603804	-221.515799642	;
	39	44	0.000549539	0.00500526	0.064981493	1808	1808	1808	0	0	1	-30	30	-328.888130549	-24.1816954207	329.440363227	22.1699709852	;
	40	44	0.000186834	0.002000932	0.16854368	2172	2172	2172	0	0	1	-30	30	318.716358057	30.9467516939	-318.53937631	-47.3883428295	;
	40	47	0.000177428	0.001900194	0.160058219	2172	2172	2172	0	0	1	-30	30	1365.08090535	244.550851693	-1361.9413308	-228.252323396	;
	41	42	0.001299581	0.011836722	0.038417974	904	904	904	0	0	1	-30	30	519.179954415	-57.5856606613	-515.868237147	83.6326847874	;
	41	52	0.003101751	0.028251087	0.091693421	904	904	904	0	0	1	-30	30	64.3465303702	0.389147328891	-64.2256763767	-9.06771681518	;
	41	77	0.002217352	0.020195883	0.065548969	904	904	904	0	0	1	-30	30	-137.267168179	15.1128121071	137.664872018	-18.5010195405	;
	42	46	0.00172419	0.015704108	0.050970195	904	904	904	0	0	1	-30	30	123.482192306	-46.4139376335	-123.206550923	43.4296528933	;
	42	84	0.004178797	0.038060939	0.123532864	904	904	904	0	0	1	-30	30	-160.005263565	31.692195146	161.059389183	-35.2729655652	;
	43	44	0.000449352	0.004092749	0.013283673	904	904	904	0	0	1	-30	30	-226.579403931	-48.4833634231	226.802382734	49.0748962461	;
	44	48	0.001280818	0.011665829	0.037863315	904	904	904	0	0	1	-30	30	-100.435560741	34.4836149081	100.570203947	-37.3604587716	;
	44	57	0.000681396	0.007297531	0.614689901	2172	2172	2172	0	0	1	-30	30	-170.696988932	116.007601954	171.019685488	-178.752256475	;
	45	46	0.000111099	0.001189836	0.100222927	2172	2172	2172	0	0	1	-30	30	-686.193789655	-39.9996509981	686.679135821	34.3556669615	;
	45	50	0.00040114	0.004296079	0.361869864	2172	2172	2172	0	0	1	-30	30	-248.869481044	48.9200609957	249.116810037	-85.3056676564	;
	46	48	0.001260894	0.011484355	0.037274311	904	904	904	0	0	1	-30	30	78.0934837553	-0.67757646553	-78.0224581934	-2.70815429958	;
	46	50	0.000334595	0.003583402	0.301839233	2172	2172	2172	0	0	1	-30	30	-71.301234354	76.7996785322	71.3437458177	-108.939763537	;
	47	49	0.001906713	0.017366547	0.056365905	904	904	904	0	0	1	-30	30	-107.013590723	24.3223810561	107.229877603	-28.4003962852	;
	47	60	0.000752607	0.008060181	0.67892992	2172	2172	2172	0	0	1	-30	30	-695.463409104	63.4038743615	698.917787637	-99.339709418	;
	48	49	0.001480551	0.013485018	0.043767781	904	904	904	0	0	1	-30	30	92.4489726591	26.3852829027	-92.3205673261	-29.9234795649	;
	48	51	0.001270961	0.011576049	0.037571917	904	904	904	0	0	1	-30	30	55.0607893191	39.2555685089	-55.0050930169	-42.788505899	;
	49	51	0.000899122	0.008189302	0.0598043	1356	1356	1356	0	0	1	-30	30	-73.9168177901	8.59228009785	73.9638782248	-14.5636965569	;
	49	53	0.002230934	0.020319589	0.065950477	904	904	904	0	0	1	-30	30	-254.552478422	7.13566415931	255.90528998	-1.90528473175	;
	50	51	0.000183433	0.001964511	0.165475847	2172	2172	2172	0	0	1	-30	30	903.538668361	90.4269385279	-902.131151942	-93.1140765853	;
	50	54	0.000298513	0.003196975	0.269289514	2172	2172	2172	0	0	1	-30	30	-235.457231935	179.278047464	235.715019347	-205.367647905	;
	50	62	4.12e-05	0.001322961	2.693994224	14580	14580	14580	0	0	1	-30	30	-394.245918923	195.385801528	394.349731065	-480.978224907	;
	51	55	0.001436718	0.01308578	0.042471992	904	904	904	0	0	1	-30	30	-101.500024456	23.8114427231	101.64750711	-27.0042308536	;
	51	57	0.00189377	0.017248658	0.055983277	904	904	904	0	0	1	-30	30	-40.2552383374	8.86823182635	40.2864131496	-14.566788418	;
	52	54	0.001933006	0.017606027	0.057143176	904	904	904	0	0	1	-30	30	296.392763351	-35.8410795088	-294.77600521	44.4835239483	;
	52	56	0.001462649	0.013321963	0.04323856	904	904	904	0	0	1	-30	30	298.611089864	-8.46794672243	-297.383858027	15.060699649	;
	52	84	0.001585688	0.014442614	0.046875812	904	904	904	0	0	1	-30	30	-125.773063689	19.9376472007	126.016496446	-22.699146718	;
	53	55	0.000288514	0.003089893	1.041078801	4344	4344	4344	0	0	1	-30	30	1048.14223466	86.2751980395	-1045.15317487	-165.979179841	;
	53	58	0.000270064	0.002892303	0.243626177	2172	2172	2172	0	0	1	-30	30	-68.8545070345	46.3537840319	68.875217689	-72.4064264587	;
	53	63	2.79e-05	0.000896312	1.825192122	14580	14580	14580	0	0	1	-30	30	697.081805741	-3.25894832636	-696.953930018	-189.566717101	;
	54	55	0.002132132	0.019419691	0.063029714	904	904	904	0	0	1	-30	30	60.4298219908	-10.2815639014	-60.355817201	4.23646560597	;
	54	61	0.001817125	0.016550571	0.053717525	904	904	904	0	0	1	-30	30	16.6443926719	5.59177686907	-16.6384512514	-11.2543257509	;
	54	62	0.000345552	0.003700749	0.311723639	2172	2172	2172	0	0	1	-30	30	70.7108199081	-53.5939352202	-70.6901770849	20.5530432911	;
	55	57	0.000154208	0.001651521	0.139111914	2172	2172	2172	0	0	1	-30	30	386.006886638	-79.0034063712	-385.783958487	66.5510427473	;
	55	64	0.003142511	0.028622331	0.092898352	904	904	904	0	0	1	-30	30	-92.9372381569	32.3905128004	93.2329289099	-39.5331473798	;
	56	61	0.001408725	0.01283082	0.041644479	904	904	904	0	0	1	-30	30	116.142555265	-33.1848294307	-115.950095029	30.5232212073	;
	57	60	0.001430752	0.01303144	0.042295623	904	904	904	0	0	1	-30	30	-185.732743138	-0.944804038261	186.195178031	0.630537959056	;
	57	97	0.000552148	0.005913329	0.498094995	2172	2172	2172	0	0	1	-30	30	-900.801936805	169.222963681	905.197875176	-175.049666547	;
	58	59	6.17e-05	0.00066	0.501	6516	6516	6516	0	0	1	-30	30	-1837.84083501	-21.1090505397	1839.77597826	-12.2039867486	;
	58	63	0.00017	0.00182	0.613	4344	4344	4344	0	0	1	-30	30	453.127624854	-101.11258689	-452.796189297	38.6136021232	;
	60	63	0.000254942	0.002730347	0.229984176	2172	2172	2172	0	0	1	-30	30	-300.493213454	-75.6137601763	300.717290551	53.2806280551	;
	60	100	0.000568608	0.006089613	0.512943851	2172	2172	2172	0	0	1	-30	30	-787.944139679	153.990542471	791.409133858	-171.636185142	;
	61	62	0.000190755	0.001737417	0.022556263	1808	1808	1808	0	0	1	-30	30	-9.86317214179	-162.528802222	9.91007459376	160.552993278	;
	62	63	6.31e-05	0.00202596	4.125535352	14580	14580	14580	0	0	1	-30	30	-825.402639725	-429.192128561	825.830868841	0.249187242935	;
	62	64	0.00024797	0.002655684	0.223695124	2172	2172	2172	0	0	1	-30	30	-668.727833768	373.664936172	670.111179135	-382.556448072	;
	63	97	0.001705746	0.015536123	0.050424972	904	904	904	0	0	1	-30	30	-135.528300175	81.55028337	135.931323255	-83.2621372091	;
	64	96	0.001229987	0.011202852	0.036360649	904	904	904	0	0	1	-30	30	-256.379794277	17.3594786667	257.153096525	-14.1441659538	;
	64	98	0.00145865	0.013285543	0.043120356	904	904	904	0	0	1	-30	30	50.6142709236	53.6681155237	-50.5353235727	-57.4476854212	;
	64	99	0.00122871	0.011191219	0.036322892	904	904	904	0	0	1	-30	30	137.916696191	63.7332709111	-137.644050751	-65.0366280667	;
	64	102	0.00020466	0.002191839	0.73849704	4344	4344	4344	0	0	1	-30	30	-1371.31967911	415.547748537	1375.38208719	-449.193208315	;
	65	68	0.001222283	0.011132689	0.036132921	904	904	904	0	0	1	-30	30	-299.74287843	-0.661581801759	300.752189678	5.90843917399	;
	65	69	0.003164497	0.028822584	0.093548306	904	904	904	0	0	1	-30	30	214.021433196	-13.0928554147	-212.687378863	15.0901549849	;
	66	67	0.001903714	0.01733923	0.056277244	904	904	904	0	0	1	-30	30	-305.076545608	48.7370661686	306.756152303	-39.5365167921	;
	66	70	0.001986687	0.018094956	0.058730073	904	904	904	0	0	1	-30	30	1.54684995018	3.16670347764	-1.54606717159	-9.52663800513	;
	67	69	0.001285688	0.011710181	0.038007266	904	904	904	0	0	1	-30	30	-333.831268772	36.3884867707	335.17350017	-28.276287319	;
	68	69	0.00309092	0.02815243	0.091373212	904	904	904	0	0	1	-30	30	339.006520956	-3.38564588222	-335.765731188	22.9488883021	;
	68	71	0.000542799	0.0058132	0.489660838	2172	2172	2172	0	0	1	-30	30	-615.501911772	-7.49301767426	617.379773585	-26.2064031058	;
	69	72	0.003845431	0.035024597	0.113677932	904	904	904	0	0	1	-30	30	217.607897607	-14.9345160729	-215.923269888	17.9999439405	;
	70	72	0.001924592	0.017529395	0.056894456	904	904	904	0	0	1	-30	30	-92.9068068632	23.3371132025	93.0726107422	-27.972889823	;
	71	73	0.000429713	0.004602092	0.387646086	2172	2172	2172	0	0	1	-30	30	-927.288128606	142.467316736	930.746524634	-148.03320359	;
	71	78	0.005029715	0.045811184	0.148687523	904	904	904	0	0	1	-30	30	338.77731447	-11.9006781859	-333.537170457	43.3104836448	;
	72	74	0.001850173	0.016851572	0.054694473	904	904	904	0	0	1	-30	30	10.5374573386	-1.25837427496	-10.5355018072	-4.61467122613	;
	73	75	0.000154736	0.001657168	0.139587554	2172	2172	2172	0	0	1	-30	30	-2164.49744322	50.4449112092	2171.11453528	5.07648312627	;
	73	76	0.003400257	0.030969904	0.100517777	904	904	904	0	0	1	-30	30	306.267836368	28.450943755	-303.322934017	-12.480625799	;
	73	79	0.005323371	0.048485836	0.157368535	904	904	904	0	0	1	-30	30	316.970810996	26.2485606388	-312.033390875	1.82682359317	;
	73	80	0.003287737	0.029945065	0.097191498	904	904	904	0	0	1	-30	30	-121.697120572	51.2656139575	122.23729267	-56.8827272102	;
	73	81	0.001180594	0.012643784	1.065018618	2172	2172	2172	0	0	1	-30	30	1570.24041203	91.9849691186	-1543.44588346	80.2622711744	;
	74	77	0.001050785	0.009570661	0.03106311	904	904	904	0	0	1	-30	30	376.463661766	2.05684896068	-375.0802217	7.21100955806	;
	74	78	0.003080612	0.028058549	0.091068507	904	904	904	0	0	1	-30	30	-196.755566719	-7.81467114437	197.863577458	8.02670115423	;
	75	82	0.000690812	0.007398375	0.623184303	2172	2172	2172	0	0	1	-30	30	-834.731509154	150.138961838	839.311459398	-169.406371194	;
	76	79	0.00216439	0.019713499	0.063983315	904	904	904	0	0	1	-30	30	295.523712367	2.89793899817	-293.744509032	6.54498724122	;
	77	81	0.002745828	0.0250093	0.081171682	904	904	904	0	0	1	-30	30	-340.913869344	70.118422161	344.041067557	-50.2682436968	;
	78	81	0.002422622	0.022065501	0.071617111	904	904	904	0	0	1	-30	30	19.3357783608	74.7104334143	-19.1904962456	-81.0897735774	;
	79	80	0.003522928	0.032087205	0.104144155	904	904	904	0	0	1	-30	30	-574.261422802	76.6987806834	585.543319115	15.004025046	;
	79	81	0.001905365	0.017354266	0.056326045	904	904	904	0	0	1	-30	30	249.312895467	-45.1498100631	-248.153619391	49.7698566754	;
	79	83	0.001772751	0.016146406	0.052405742	904	904	904	0	0	1	-30	30	257.755851482	32.9443483491	-256.613570597	-27.9977222779	;
	80	82	3.61e-05	0.00115912	2.360357594	14580	14580	14580	0	0	1	-30	30	-5133.21558169	-610.167612864	5142.1681681	642.448753247	;
	81	84	0.00122041	0.011115623	0.144310127	1808	1808	1808	0	0	1	-30	30	1019.09967759	-78.2945399099	-1007.06050735	172.659802398	;
	81	86	0.000662535	0.007095536	0.59767536	2172	2172	2172	0	0	1	-30	30	-1067.68268535	182.741505484	1075.1099558	-166.10700363	;
	82	85	0.004627741	0.042149964	0.136804449	904	904	904	0	0	1	-30	30	467.987228516	42.9009518546	-458.582904446	28.1768444194	;
	82	86	0.000927929	0.009937818	0.837088105	2172	2172	2172	0	0	1	-30	30	2164.00157358	186.081629319	-2123.68612093	156.220694114	;
	82	94	0.005001876	0.045557628	0.147864567	904	904	904	0	0	1	-30	30	56.818231927	26.3595604842	-56.6157620822	-40.368153489	;
	83	89	0.003668123	0.033409661	0.108436396	904	904	904	0	0	1	-30	30	-32.1092928274	-0.875511924928	32.146734357	-9.96920344571	;
	85	86	0.000987046	0.00899012	0.029178874	904	904	904	0	0	1	-30	30	186.647084807	-55.3704264369	-186.289265462	55.5828360512	;
	86	87	0.000301405	0.003227955	0.271898989	2172	2172	2172	0	0	1	-30	30	-243.457704	72.9698033048	243.650174937	-99.328124269	;
	86	89	0.003643968	0.033189659	0.107722346	904	904	904	0	0	1	-30	30	189.951032237	3.51015917272	-188.692675168	-3.24385318976	;
	86	90	0.002477336	0.022563841	0.073234554	904	904	904	0	0	1	-30	30	58.2456082143	7.98747065696	-58.1620510009	-14.8666276586	;
	86	92	0.000752885	0.008063158	0.67918067	2172	2172	2172	0	0	1	-30	30	-251.150837255	0.540488839292	251.613666687	-66.6570195846	;
	87	90	0.002118269	0.019293421	0.062619884	904	904	904	0	0	1	-30	30	108.3372479	-3.82075753252	-108.09891227	-0.528461663792	;
	87	95	0.000515412	0.005519901	0.464955523	2172	2172	2172	0	0	1	-30	30	96.6797835243	39.8738749201	-96.6132852958	-87.4780892777	;
	88	92	0.001978682	0.018022046	0.058493431	904	904	904	0	0	1	-30	30	903.658652828	17.9886827652	-888.460902304	114.264759963	;
	88	94	0.002833759	0.025810183	0.083771075	904	904	904	0	0	1	-30	30	-13.3475291621	15.9591634385	13.3633773145	-24.6852059896	;
	89	93	0.001483845	0.013515018	0.043865152	904	904	904	0	0	1	-30	30	450.210092329	-15.7795743534	-447.290887952	37.8579065522	;
	90	92	0.002453205	0.022344057	0.072521209	904	904	904	0	0	1	-30	30	-148.460683372	0.588330333381	148.98142205	-3.40523361072	;
	91	147	0.00275034	0.025050396	0.081305066	904	904	904	0	0	1	-30	30	-68.4868685098	21.0111410341	68.6279183552	-28.1372902044	;
	92	95	0.000460572	0.004932573	0.415483409	2172	2172	2172	0	0	1	-30	30	358.481592014	54.3759666685	-357.890040789	-91.2671471	;
	93	102	0.004195747	0.038215319	0.124033929	904	904	904	0	0	1	-30	30	222.630727683	-38.1571732147	-220.560734146	44.2156332607	;
	93	149	0.002966654	0.027020609	0.087699707	904	904	904	0	0	1	-30	30	-102.873029598	43.6497751956	103.246367186	-49.1565484872	;
	94	150	0.00258422	0.023537359	0.076394262	904	904	904	0	0	1	-30	30	573.072390507	36.8622427344	-564.979420064	28.9169560699	;
	95	146	0.001216475	0.011079788	0.035961223	904	904	904	0	0	1	-30	30	328.061384852	28.2031004053	-326.785988942	-20.285168411	;
	95	150	0.000858914	0.009198692	0.774829649	2172	2172	2172	0	0	1	-30	30	-500.730595122	86.2172296726	502.943447889	-142.242367352	;
	95	152	0.003724941	0.033927169	0.110116054	904	904	904	0	0	1	-30	30	206.472991805	31.1773661211	-204.889985801	-27.9625640024	;
	96	97	0.002346462	0.021371826	0.069365678	904	904	904	0	0	1	-30	30	41.4570412852	-14.5235965347	-41.4161569808	7.57392796207	;
...